! *****************************************
! Open-boundaries
! *****************************************
 &OBCS_PARM01
!
 OBWetaFile='sossheig_197908_202412.bin',
!
 OB_Iwest=368*1,
!
 useOBCSprescribe=.TRUE.,
!
 /
!
! *****************************************
! Orlanski Boundary Condition Parameters.
! *****************************************
! *****************************************
! Sponge Layer Parameters.
! *****************************************
 &OBCS_PARM03
 /
