! ***************
! RBCS Parameters
! ***************
 &RBCS_PARM01
 rbcsForcingCycle = 0,
 rbcsSingleTimeFiles = .true.,
 rbcsForcingOffset = 0.,
 rbcsIter0 = 0,
 deltaTrbcs = 150.,
 rbcsForcingPeriod = 2628000.,
 useRBCsalt = .true.,
 useRBCtemp = .true.,
 tauRelaxT = 172800.,
 tauRelaxS = 172800.,
 relaxTFile = 'mit_rbcs/votemper',
 relaxSFile = 'mit_rbcs/vosaline',
 relaxMaskFile(1) ='maskrbcs.bin',
 relaxMaskFile(2) ='maskrbcs.bin',
 /

&RBCS_PARM02
 /
