#
# *******************
# Calendar Parameters
# *******************
 &CAL_NML
 TheCalendar = 'gregorian',
 startDate_1 = 19790801,
 calendarDumps = .True.,
 startDate_2 = 000000,
 /
